STAAD PLANE
START JOB INFORMATION
ENGINEER DATE 22-Nov-19
END JOB INFORMATION
INPUT WIDTH 79
UNIT METER KN
JOINT COORDINATES
1 0 0 0; 2 5 0 0; 3 10 0 0; 4 15 0 0; 5 20 0 0; 6 0 3.5 0; 7 5 3.5 0;
8 10 3.5 0; 9 15 3.5 0; 10 20 3.5 0; 11 0 7 0; 12 5 7 0; 13 10 7 0; 14 15 7 0;
15 20 7 0;
MEMBER INCIDENCES
1 1 6; 2 6 11; 3 2 7; 4 7 12; 5 3 8; 6 8 13; 7 4 9; 8 9 14; 9 5 10; 10 10 15;
11 6 7; 12 11 12; 13 7 8; 14 12 13; 15 8 9; 16 13 14; 17 9 10; 18 14 15;
DEFINE MATERIAL START
ISOTROPIC STEEL
E 2.05e+008
POISSON 0.3
DENSITY 76.8195
ALPHA 1.2e-005
DAMP 0.03
TYPE STEEL
STRENGTH FY 253200 FU 407800 RY 1.5 RT 1.2
END DEFINE MATERIAL
MEMBER PROPERTY AMERICAN
1 TAPERED 0.14255 0.00228 0.14255 0.05019 0.00294 0.05019 0.00294
2 TAPERED 0.20157 0.00323 0.20157 0.07098 0.00416 0.07098 0.00416
3 TAPERED 0.13146 0.0021 0.13146 0.04629 0.00271 0.04629 0.00271
4 TAPERED 0.09343 0.00149 0.09343 0.03209 0.00193 0.03209 0.00193
5 TAPERED 0.12897 0.00206 0.12897 0.04541 0.00266 0.04541 0.00266
6 TAPERED 0.09101 0.00146 0.09101 0.03205 0.00188 0.03205 0.00188
7 TAPERED 0.13146 0.0021 0.13146 0.04629 0.00271 0.04629 0.00271
8 TAPERED 0.09343 0.00149 0.09343 0.0329 0.00193 0.0329 0.00193
9 TAPERED 0.14255 0.00228 0.14255 0.05019 0.00294 0.05019 0.00294
10 TAPERED 0.20157 0.00323 0.20157 0.07098 0.00416 0.07098 0.00416
11 TAPERED 0.2299 0.00368 0.2299 0.08095 0.00475 0.08095 0.00475
12 TAPERED 0.23385 0.00374 0.23385 0.08234 0.00483 0.08234 0.00483
13 TAPERED 0.22425 0.00359 0.22425 0.07896 0.00463 0.07896 0.00463
14 TAPERED 0.22819 0.00365 0.22819 0.08035 0.00471 0.08035 0.00471
15 TAPERED 0.22514 0.0036 0.22514 0.07928 0.00465 0.07928 0.00465
16 TAPERED 0.22819 0.00365 0.22819 0.08035 0.00471 0.08035 0.00471
17 TAPERED 0.2299 0.00368 0.2299 0.08095 0.00475 0.08095 0.00475
18 TAPERED 0.23385 0.00374 0.23385 0.08234 0.00483 0.08234 0.00483
CONSTANTS
MATERIAL STEEL ALL
SUPPORTS
1 TO 5 FIXED
LOAD 1 LOADTYPE None  TITLE LL
MEMBER LOAD
11 TO 18 UNI GY -10
PERFORM ANALYSIS
PERFORM ANALYSIS
PERFORM ANALYSIS
PERFORM ANALYSIS
FINISH
