STAAD PLANE
START JOB INFORMATION
ENGINEER DATE 22-Nov-19
END JOB INFORMATION
INPUT WIDTH 79
UNIT METER KN
JOINT COORDINATES
1 0 0 0; 2 5 0 0; 3 10 0 0; 4 15 0 0; 5 20 0 0; 6 0 3.5 0; 7 5 3.5 0;
8 10 3.5 0; 9 15 3.5 0; 10 20 3.5 0; 11 0 7 0; 12 5 7 0; 13 10 7 0; 14 15 7 0;
15 20 7 0;
MEMBER INCIDENCES
1 1 6; 2 6 11; 3 2 7; 4 7 12; 5 3 8; 6 8 13; 7 4 9; 8 9 14; 9 5 10; 10 10 15;
11 6 7; 12 11 12; 13 7 8; 14 12 13; 15 8 9; 16 13 14; 17 9 10; 18 14 15;
DEFINE MATERIAL START
ISOTROPIC STEEL
E 2.05e+008
POISSON 0.3
DENSITY 76.8195
ALPHA 1.2e-005
DAMP 0.03
TYPE STEEL
STRENGTH FY 253200 FU 407800 RY 1.5 RT 1.2
END DEFINE MATERIAL
MEMBER PROPERTY
1 TAPERED 0.14623 0.00234 0.14623 0.05149 0.00302 0.05149 0.00302
2 TAPERED 0.21011 0.00336 0.21011 0.07398 0.00434 0.07398 0.00434
3 TAPERED 0.14479 0.00232 0.14479 0.05098 0.00299 0.05098 0.00299
4 TAPERED 0.20914 0.00335 0.20914 0.07364 0.00432 0.07364 0.00432
5 TAPERED 0.14719 0.00236 0.14719 0.05183 0.00304 0.05183 0.00304
6 TAPERED 0.20336 0.00325 0.20336 0.07161 0.0042 0.07161 0.0042
7 TAPERED 0.14815 0.00237 0.14815 0.05217 0.00306 0.05217 0.00306
8 TAPERED 0.20479 0.00328 0.20479 0.07211 0.00423 0.07211 0.00423
9 TAPERED 0.0184 0.00029 0.0184 0.00648 0.00038 0.00648 0.00038
10 TAPERED 0.04461 0.00071 0.04461 0.01571 0.00092 0.01571 0.00092
11 TAPERED 0.21145 0.00338 0.21145 0.07446 0.00436 0.07446 0.00436
12 TAPERED 0.20693 0.00331 0.20693 0.07287 0.00427 0.07287 0.00427
13 TAPERED 0.05526 0.00088 0.05526 0.01946 0.00114 0.01946 0.00114
14 TAPERED 0.07623 0.00122 0.07623 0.02684 0.00157 0.02684 0.00157
15 TAPERED 0.21048 0.00337 0.21048 0.07412 0.00434 0.07412 0.00434
16 TAPERED 0.20616 0.0033 0.20616 0.07259 0.00426 0.07259 0.00426
17 TAPERED 0.06532 0.00105 0.06532 0.023 0.00135 0.023 0.00135
18 TAPERED 0.09222 0.00148 0.09222 0.03247 0.0019 0.03247 0.0019
CONSTANTS
MATERIAL STEEL ALL
SUPPORTS
1 TO 5 FIXED
LOAD 1 LOADTYPE Gravity  TITLE LL
MEMBER LOAD
11 12 15 16 UNI GY -10
PERFORM ANALYSIS
PERFORM ANALYSIS
PERFORM ANALYSIS
PERFORM ANALYSIS
PERFORM ANALYSIS
PERFORM ANALYSIS
PERFORM ANALYSIS
FINISH
